                                  MODFLOW-2005     
      U.S. GEOLOGICAL SURVEY MODULAR FINITE-DIFFERENCE GROUND-WATER FLOW MODEL
                            VERSION 1.11.00 8/8/2013

 LIST FILE: Modelo_Supe_4c.lst
                         UNIT   11

 OPENING Modelo_Supe_4c.cbc
 FILE TYPE:DATA(BINARY)   UNIT    9   STATUS:REPLACE
 FORMAT:BINARY                 ACCESS:SEQUENTIAL          

 OPENING Modelo_Supe_4c.dis
 FILE TYPE:DIS   UNIT   12   STATUS:OLD    
 FORMAT:FORMATTED              ACCESS:SEQUENTIAL          

 OPENING Modelo_Supe_4c.bas
 FILE TYPE:BAS6   UNIT   13   STATUS:OLD    
 FORMAT:FORMATTED              ACCESS:SEQUENTIAL          

 OPENING Modelo_Supe_4c.oc
 FILE TYPE:OC   UNIT   39   STATUS:OLD    
 FORMAT:FORMATTED              ACCESS:SEQUENTIAL          

 OPENING Modelo_Supe_4c.fhd
 FILE TYPE:DATA   UNIT   37   STATUS:REPLACE
 FORMAT:FORMATTED              ACCESS:SEQUENTIAL          

 OPENING Modelo_Supe_4c.fdn
 FILE TYPE:DATA   UNIT   38   STATUS:REPLACE
 FORMAT:FORMATTED              ACCESS:SEQUENTIAL          

 OPENING Modelo_Supe_4c.pcg
 FILE TYPE:PCG   UNIT   18   STATUS:OLD    
 FORMAT:FORMATTED              ACCESS:SEQUENTIAL          

 OPENING Modelo_Supe_4c.lpf
 FILE TYPE:LPF   UNIT   14   STATUS:OLD    
 FORMAT:FORMATTED              ACCESS:SEQUENTIAL          

 OPENING Modelo_Supe_4c.ghb
 FILE TYPE:GHB   UNIT   19   STATUS:OLD    
 FORMAT:FORMATTED              ACCESS:SEQUENTIAL          

 OPENING Modelo_Supe_4c.wel
 FILE TYPE:WEL   UNIT   20   STATUS:OLD    
 FORMAT:FORMATTED              ACCESS:SEQUENTIAL          

 OPENING Modelo_Supe_4c.riv
 FILE TYPE:RIV   UNIT   21   STATUS:OLD    
 FORMAT:FORMATTED              ACCESS:SEQUENTIAL          

 OPENING Modelo_Supe_4c.rch
 FILE TYPE:RCH   UNIT   24   STATUS:OLD    
 FORMAT:FORMATTED              ACCESS:SEQUENTIAL          

 OPENING Modelo_Supe_4c.evt
 FILE TYPE:EVT   UNIT   25   STATUS:OLD    
 FORMAT:FORMATTED              ACCESS:SEQUENTIAL          

 OPENING Modelo_Supe_4c.swi
 FILE TYPE:SWI2   UNIT  168   STATUS:OLD    
 FORMAT:FORMATTED              ACCESS:SEQUENTIAL          

 OPENING Modelo_Supe_4c.zta
 FILE TYPE:DATA(BINARY)   UNIT  170   STATUS:REPLACE
 FORMAT:BINARY                 ACCESS:SEQUENTIAL          

 BAS -- BASIC PACKAGE, VERSION 7, 5/2/2005 INPUT READ FROM UNIT   13
 
 MODFLOW was compiled using mixed precision
 Precision of REAL variables:           6
 Precision of DOUBLE PRECISION variables:          15

 DISCRETIZATION INPUT DATA READ FROM UNIT   12
 # Discretization File created on 05/07/2016 by ModelMuse version 3.7.1.0.
 # Upper left corner: (198783.49412905, 8802485.59102914)
 # Lower left corner: (208400.146353188, 8792868.938805)
 # Upper right corner: (206137.404653392, 8809839.50155348)
 # Lower right corner: (215754.05687753, 8800222.84932934)
 # Grid angle (in degrees counterclockwise): 45
    2 LAYERS        68 ROWS        52 COLUMNS
    2 STRESS PERIOD(S) IN SIMULATION
 MODEL TIME UNIT IS SECONDS
 MODEL LENGTH UNIT IS METERS
  Confining bed flag for each layer:
   0   0



                               DELR
 READING ON UNIT   12 WITH FORMAT: (FREE)              
   200.00       200.00       200.00       200.00       200.00    
   200.00       200.00       200.00       200.00       200.00    
   200.00       200.00       200.00       200.00       200.00    
   200.00       200.00       200.00       200.00       200.00    
   200.00       200.00       200.00       200.00       200.00    
   200.00       200.00       200.00       200.00       200.00    
   200.00       200.00       200.00       200.00       200.00    
   200.00       200.00       200.00       200.00       200.00    
   200.00       200.00       200.00       200.00       200.00    
   200.00       200.00       200.00       200.00       200.00    
   200.00       200.00    



                               DELC
 READING ON UNIT   12 WITH FORMAT: (FREE)              
   200.00       200.00       200.00       200.00       200.00    
   200.00       200.00       200.00       200.00       200.00    
   200.00       200.00       200.00       200.00       200.00    
   200.00       200.00       200.00       200.00       200.00    
   200.00       200.00       200.00       200.00       200.00    
   200.00       200.00       200.00       200.00       200.00    
   200.00       200.00       200.00       200.00       200.00    
   200.00       200.00       200.00       200.00       200.00    
   200.00       200.00       200.00       200.00       200.00    
   200.00       200.00       200.00       200.00       200.00    
   200.00       200.00       200.00       200.00       200.00    
   200.00       200.00       200.00       200.00       200.00    
   200.00       200.00       200.00       200.00       200.00    
   200.00       200.00       200.00    



           TOP ELEVATION OF LAYER 1
 READING ON UNIT   12 WITH FORMAT: (FREE)              

            1           2           3           4           5           6           7           8           9          10
           11          12          13          14          15          16          17          18          19          20
           21          22          23          24          25          26          27          28          29          30
           31          32          33          34          35          36          37          38          39          40
           41          42          43          44          45          46          47          48          49          50
           51          52
 ........................................................................................................................
   1    0.000       0.000       0.000       0.000       0.000       0.000       0.000       0.000       57.92       56.97    
        48.90       63.92       56.71       68.88       54.85       50.53       59.68       56.92       43.36       36.62    
        32.34       31.40       34.71       38.87       43.30       51.51       66.84       72.92       70.33       81.98    
        92.72       108.9       119.9       139.5       159.0       0.000       0.000       0.000       0.000       0.000    
        0.000       0.000       0.000       0.000       0.000       0.000       0.000       0.000       0.000       0.000    
        0.000       0.000    
   2    0.000       0.000       0.000       0.000       0.000       0.000       0.000       36.58       55.67       57.50    
        59.40       55.49       54.73       64.75       57.05       57.12       50.27       30.60       40.38       30.67    
        30.17       26.49       37.09       40.46       41.51       48.31       52.76       63.83       69.54       78.72    
        102.8       94.02       126.0       142.1       141.6       136.5       0.000       0.000       0.000       0.000    
        0.000       0.000       0.000       0.000       0.000       0.000       0.000       0.000       0.000       0.000    
        0.000       0.000    
   3    0.000       0.000       0.000       0.000       0.000       0.000       44.33       25.57       28.20       27.68    
        21.20       10.76       22.98       42.71       31.30       29.31       32.91       19.17       17.96       16.45    
        24.54       20.98       34.46       43.44       49.00       48.55       57.44       64.93       70.60       79.00    
        93.47       92.09       97.12       121.9       130.3       143.1       169.3       0.000       0.000       0.000    
        0.000       0.000       0.000       0.000       0.000       0.000       0.000       0.000       0.000       0.000    
        0.000       0.000    
   4    0.000       0.000       0.000       0.000       0.000       22.36       28.93       14.44       8.300       8.977    
        6.140       8.075       8.146       7.833       6.870       6.300       10.32       12.86       18.43       17.00    
        19.17       25.82       34.37       44.83       49.22       53.04       62.46       68.93       74.93       78.76    
        86.20       92.40       90.39       117.4       128.8       142.3       195.2       234.5       0.000       0.000    
        0.000       0.000       0.000       0.000       0.000       0.000       0.000       0.000       0.000       0.000    
        0.000       0.000    
   5    0.000       0.000       0.000       0.000       13.83       15.98       14.05       8.950       8.195       6.444    
        4.000       6.022       10.13       7.400       7.625       8.512       8.600       10.89       14.79       17.53    
        17.53       30.53       36.22       42.10       49.05       52.49       60.05       68.71       78.83       78.87    
        88.88       103.8       110.4       117.3       139.2       152.6       188.5       216.8       243.4       0.000    
        0.000       0.000       0.000       0.000       0.000       0.000       0.000       0.000       0.000       0.000    
        0.000       0.000    
   6  -10.000     -10.000     -10.000     -10.000       8.190       10.37       8.075       7.293       7.048       8.958    
        8.068       8.512       7.279       7.524       5.268       8.825       9.500       11.70       18.63       14.57    
        24.64       29.68       34.83       41.05       48.12       53.47       59.93       59.17       69.18       82.60    
        94.12       111.6       133.2       137.5       137.8       146.4       179.5       219.4       255.5       253.3    
        199.0       0.000       0.000       0.000       0.000       0.000       0.000       0.000       0.000       0.000    
        0.000       0.000    
   7  -10.000     -10.000     -10.000     -10.000       8.933       9.950       8.683       12.98       5.680       5.700    
        10.98       10.50       8.178       10.54       11.68       18.53       16.67       24.88       50.88       37.54    
        23.49       24.10       48.28       52.02       48.32       50.45       56.46       56.95       66.23       88.20    
        110.0       108.2       130.7       128.2       132.9       150.0       155.1       156.5       166.6       170.5    
        171.6       0.000       0.000       0.000       0.000       0.000       0.000       0.000       0.000       0.000    
        0.000       0.000    
   8  -10.000     -10.000     -10.000     -10.000       7.698       9.200       9.067       11.00       4.952       5.805    
        8.100       7.568       12.60       8.467       10.95       11.24       15.34       29.00       49.54       67.07    
        35.95       28.38       38.02       45.44       42.95       47.17       50.97       50.38       64.33       84.76    
        88.68       105.2       125.4       139.0       130.0       135.4       143.7       171.2       176.3       183.5    
        175.8       187.9       0.000       0.000       0.000       0.000       0.000       0.000       0.000       0.000    
        0.000       0.000    
   9  -10.000     -10.000     -10.000     -10.000       7.267       7.024       9.900       7.511       5.073       9.450    
        9.561       8.700       10.68       10.60       11.41       11.96       14.10       25.85       46.05       78.66    
        59.33       42.41       32.88       33.84       35.61       48.10       44.51       45.18       53.85       58.25    
        66.83       91.07       103.7       112.7       119.1       136.9       150.2       175.1       217.1       236.4    
        257.9       243.6       238.6       0.000       0.000       0.000       0.000       0.000       0.000       0.000    
        0.000       0.000    
  10    0.000     -10.000     -10.000     -10.000       7.951       6.175       8.545       7.238       8.537       10.82    
        13.10       13.57       14.45       11.85       16.66       15.32       19.81       26.91       61.62       93.93    
        87.44       45.67       34.64       31.59       29.45       44.58       43.80       43.20       49.28       58.83    
        65.67       71.41       85.36       94.27       102.6       118.9       133.9       164.0       201.1       236.4    
        248.2       243.6       245.8       264.0       0.000       0.000       0.000       0.000       0.000       0.000    
        0.000       0.000    
  11    0.000     -10.000     -10.000     -10.000       7.900       7.244       6.667       4.400       6.727       7.829    
        18.76       11.43       13.49       11.38       13.45       20.18       29.33       44.50       72.96       86.29    
        50.75       38.24       26.52       29.47       29.15       45.43       39.43       42.10       49.10       64.05    
        101.5       92.27       94.83       100.6       118.3       128.3       141.6       150.2       163.2       177.4    
        198.8       191.8       215.6       213.3       206.2       0.000       0.000       0.000       0.000       0.000    
        0.000       0.000    
  12    0.000     -10.000     -10.000     -10.000       11.41       7.021       6.957       5.350       5.585       6.841    
        12.78       14.63       13.57       12.38       8.326       19.34       24.73       52.67       86.41       59.80    
        33.73       27.54       25.21       29.45       35.10       32.36       33.22       37.88       39.82       64.52    
        110.2       122.2       133.7       117.8       116.5       137.1       146.4       127.8       127.4       137.3    
        146.1       149.0       160.3       177.4       187.5       233.3       0.000       0.000       0.000       0.000    
        0.000       0.000    
  13    0.000     -10.000     -10.000     -10.000       11.33       8.911       10.77       5.756       5.325       7.956    
        8.476       12.47       14.98       16.80       11.17       14.07       22.78       29.53       53.70       48.44    
        15.49       26.27       27.25       31.37       34.63       25.43       30.58       36.87       31.52       55.44    
        72.66       82.70       97.74       107.6       99.80       123.0       130.5       114.8       113.1       134.0    
        138.8       148.8       144.2       128.2       173.5       262.0       271.9       0.000       0.000       0.000    
        0.000       0.000    
  14    0.000     -10.000     -10.000     -10.000       9.568       6.805       9.073       6.650       6.326       7.239    
        7.682       9.050       15.40       17.02       25.98       17.51       17.29       22.47       21.31       19.73    
        14.67       30.65       26.56       39.05       27.27       18.16       27.44       27.88       43.20       49.12    
        46.97       44.15       52.54       58.23       72.28       88.02       83.62       94.65       103.3       106.2    
        114.9       124.6       140.9       152.1       202.0       265.6       260.0       253.7       0.000       0.000    
        0.000       0.000    
  15    0.000     -10.000     -10.000     -10.000     -10.000       6.902       6.024       5.378       8.292       7.317    
        6.875       8.805       12.96       16.83       12.88       15.11       11.45       11.62       18.56       17.41    
        25.45       27.85       32.39       31.83       31.50       23.76       30.15       27.88       39.91       37.37    
        40.93       41.47       47.26       49.00       54.22       60.35       64.55       80.81       89.96       96.40    
        97.27       115.7       131.7       153.4       209.6       218.7       222.2       227.5       275.1       0.000    
        0.000       0.000    
  16    0.000     -10.000     -10.000     -10.000     -10.000       6.244       8.977       6.556       6.537       7.300    
        9.098       9.978       13.60       9.844       10.42       15.96       12.93       12.85       14.02       19.80    
        22.07       30.40       33.90       29.69       28.85       31.92       26.27       38.67       44.09       36.09    
        42.85       41.89       48.47       47.59       47.28       49.94       59.44       62.88       77.95       81.53    
        85.61       99.90       116.1       147.8       171.2       190.0       213.1       258.2       290.4       261.0    
        0.000       0.000    
  17    0.000     -10.000     -10.000     -10.000     -10.000       6.575       6.878       6.933       7.050       7.902    
        8.262       10.76       12.60       12.54       9.488       12.25       12.98       9.400       15.89       18.62    
        21.40       34.70       27.09       25.14       32.70       33.78       26.87       41.40       39.75       35.29    
        44.12       43.10       49.61       44.69       46.00       54.95       56.88       62.62       68.16       67.17    
        72.88       73.66       94.31       134.4       153.6       166.6       210.8       245.5       213.6       173.8    
        168.2       0.000    
  18    0.000     -10.000     -10.000     -10.000     -10.000       7.634       6.844       7.000       8.357       8.889    
        9.521       15.07       10.71       11.75       9.600       11.05       12.67       9.133       12.52       14.63    
        21.80       33.85       18.76       27.35       31.27       32.71       33.96       44.30       46.00       35.10    
        43.13       37.90       44.80       50.05       47.80       60.73       62.50       61.12       67.64       60.33    
        72.11       68.45       79.36       108.7       118.6       158.5       187.0       161.1       123.5       94.83    
        94.55       86.92    
  19    0.000     -10.000     -10.000     -10.000     -10.000       6.950       9.553       8.378       9.773       8.195    
        9.864       11.49       8.325       10.31       10.94       9.756       14.40       12.43       25.59       19.42    
        29.27       19.74       24.54       25.56       19.20       33.05       30.43       42.56       43.85       33.02    
        35.70       38.11       48.53       53.43       50.50       55.53       55.51       54.28       58.33       60.67    
        68.68       71.76       68.78       74.51       76.50       112.1       98.93       88.27       81.25       77.27    
        80.00       85.03    
  20    0.000     -10.000     -10.000     -10.000     -10.000       8.940       10.26       8.488       8.775       8.511    
        9.000       8.550       7.163       8.720       8.048       9.825       12.51       15.09       22.20       23.39    
        37.27       24.00       28.10       16.95       21.33       32.76       24.02       40.59       40.31       27.27    
        30.05       30.98       49.41       49.67       48.00       44.58       56.84       57.02       60.72       67.49    
        65.00       68.91       70.71       72.20       74.98       84.67       84.68       75.60       72.48       79.93    
        78.44       84.31    
  21    0.000     -10.000     -10.000     -10.000     -10.000       10.77       6.854       7.925       7.683       7.089    
        10.16       10.60       6.591       8.886       6.425       10.20       11.93       19.84       18.47       25.47    
        33.75       28.14       26.46       24.48       24.72       29.77       26.36       36.91       39.86       26.74    
        34.12       34.15       37.41       41.33       45.24       50.28       65.73       62.05       59.61       61.12    
        60.36       62.14       68.51       74.44       78.29       79.37       79.75       69.27       70.84       83.33    
        86.57       95.44    
  22    0.000     -10.000     -10.000     -10.000     -10.000       11.98       5.250       6.561       5.596       6.267    
        7.881       7.122       7.800       11.40       10.44       13.02       12.57       16.31       22.20       41.25    
        35.56       19.68       19.62       25.85       22.84       26.41       27.60       38.85       24.96       33.03    
        37.46       43.29       32.04       50.49       51.10       46.45       73.78       89.41       63.75       59.62    
        61.49       65.07       67.93       66.83       74.91       78.53       87.05       81.04       86.14       112.6    
        172.2       178.1    
  23    0.000     -10.000     -10.000     -10.000     -10.000     -10.000       7.070       7.696       6.723       6.475    
        7.537       7.976       9.140       13.46       16.37       13.51       11.98       14.34       24.40       29.28    
        24.40       25.60       21.78       30.60       28.52       29.95       31.15       39.68       33.63       35.26    
        37.40       38.47       35.49       38.90       42.88       54.47       66.80       78.81       71.16       63.80    
        73.49       64.30       60.76       72.24       78.22       73.96       77.09       95.98       119.7       145.5    
        185.6       243.8    
  24    0.000       4.400     -10.000     -10.000     -10.000     -10.000       8.605       7.044       7.975       9.805    
        8.425       10.04       11.05      10.000       12.00       11.64       13.29       11.30       30.32       21.87    
        21.40       22.76       21.90       27.93       24.92       27.15       28.02       37.38       35.49       31.30    
        31.15       31.91       36.15       41.70       38.24       41.50       56.00       62.12       82.59       93.36    
        123.9       91.27       71.15       80.76       83.67       78.44       98.17       142.8       196.7       196.0    
        221.8       252.7    
  25    3.825       11.80     -10.000     -10.000     -10.000     -10.000       8.000       7.568       7.024       7.250    
        7.956       10.62       10.19       13.73       14.60       13.07       11.43       20.27       21.02       18.83    
        19.15       23.27       20.14       19.10       21.41       24.17       30.49       39.52       41.51       35.83    
        39.18       27.59       32.42       43.95       38.34       35.02       53.45       76.95       84.60       100.2    
        131.4       137.3       124.4       127.0       137.9       181.7       170.7       201.8       246.2       243.0    
        260.7       277.1    
  26    10.33       12.00     -10.000     -10.000     -10.000     -10.000       7.800       10.41       7.349       6.289    
        9.936       9.293       9.900       11.17       13.38       16.80       17.44       23.98       18.91       21.25    
        18.46       23.20       19.07       23.31       32.04       27.50       26.44       36.71       39.28       40.54    
        41.20       30.49       32.27       38.30       30.07       33.62       55.93       79.68       94.23       110.8    
        108.2       117.8       147.5       161.4       181.5       217.8       204.0       222.3       264.5       265.4    
        268.4       263.5    
  27    12.00       12.00     -10.000     -10.000     -10.000     -10.000       5.370       6.422       7.524       8.093    
        12.84       9.475       12.83       10.30       14.07       13.47       15.80       15.56       20.36       23.76    
        24.33       19.18       20.26       27.09       29.08       25.11       27.39       32.85       37.51       30.04    
        42.18       39.17       35.73       31.36       44.55       40.73       69.18       78.76       89.40       102.2    
        122.8       148.1       159.5       160.4       166.2       173.4       203.8       243.3       259.0       264.2    
        254.5       272.7    
  28    12.00       12.00     -10.000     -10.000     -10.000     -10.000       7.093       5.100       5.122       6.111    
        7.850       8.585       9.227       11.26       13.51       14.66       24.90       17.13       17.76       26.73    
        24.18       23.14       31.39       33.38       31.51       28.47       31.40       41.91       38.38       23.44    
        41.70       38.17       24.98       33.20       46.71       39.07       86.21       84.20       85.95       96.85    
        121.5       162.5       194.1       190.4       192.5       184.4       222.1       242.9       234.8       248.7    
        266.8       302.9    
  29    12.00       12.00     -10.000     -10.000     -10.000     -10.000       8.850       5.659       6.071       8.512    
        10.98       8.156       12.50       9.262       11.95       18.67       19.41       17.24       18.18       19.75    
        19.36       20.90       26.70       29.17       32.52       32.98       40.51       41.93       38.60       36.20    
        43.63       43.15       43.80       45.43       48.62       41.02       60.13       72.98       80.78       102.3    
        139.6       202.1       210.9       220.0       195.4       200.1       216.5       228.4       252.9       276.5    
        297.8       345.7    
  30    12.00       12.00     -10.000     -10.000     -10.000     -10.000       6.805       6.450       7.265       8.422    
        8.095       9.350       11.51       15.27       17.75       18.54       16.90       19.20       22.67       20.39    
        18.96       24.55       24.41       28.68       35.30       35.56       44.56       37.00       37.05       36.29    
        44.22       45.07       49.31       44.64       38.90       51.00       56.75       77.72       90.32       112.4    
        166.7       182.4       202.2       206.1       194.1       216.4       217.2       225.6       248.8       278.0    
        325.9       376.7    
  31    12.00       12.00     -10.000     -10.000     -10.000     -10.000       8.186       6.979       7.628       11.05    
        8.775       8.409       8.214       14.32       21.98       19.60       20.38       19.38       21.12       25.89    
        26.66       27.00       31.64       32.90       41.38       41.90       41.25       37.58       39.95       41.09    
        42.80       45.43       42.34       26.62       30.76       41.89       56.38       83.42       100.9       119.9    
        157.8       154.8       178.8       191.1       193.7       203.0       230.0       250.2       254.2       269.1    
        292.9       352.6    
  32    0.000       12.00     -10.000     -10.000     -10.000       13.67       9.976       9.911       8.366       11.48    
        11.80       7.889       12.59       16.58       22.15       21.09       29.05       22.88       22.75       24.96    
        27.47       29.52       35.40       34.98       41.59       47.30       36.88       42.51       37.96       45.05    
        45.64       42.25       50.25       31.15       40.57       49.36       61.27       84.46       104.1       104.6    
        118.5       129.8       153.4       189.6       207.1       226.1       248.7       242.8       267.3       286.9    
        297.7       324.4    
  33    0.000       0.000     -10.000     -10.000     -10.000       14.70       9.256       10.51       7.325       8.756    
        11.30       11.74       13.07       18.59       20.95       28.80       23.37       24.39       27.72       24.30    
        25.73       33.67       36.91       41.10       41.83       49.63       49.72       41.42       44.83       46.61    
        48.44       49.97       55.68       47.98       53.04       64.49       73.24       72.12       94.73       102.0    
        114.6       123.1       152.4       184.6       206.0       231.2       256.6       255.8       281.8       297.8    
        319.6       344.5    
  34    0.000       0.000     -10.000     -10.000     -10.000       10.54       7.622       5.175       6.727       7.444    
        9.130       8.675       14.17       18.17       28.76       28.61       25.47       26.41       26.02       29.93    
        28.98       39.56       39.64       45.38       46.13       46.32       52.59       48.45       50.76       50.98    
        52.82       58.07       59.09       53.93       54.40       65.22       70.45       79.00       92.35       105.8    
        116.9       118.7       153.0       187.2       216.7       239.1       241.2       245.0       263.3       304.5    
        323.6       349.8    
  35    0.000       0.000       0.000       0.000       7.000       11.26       12.48       10.47       21.55       14.09    
        12.88       9.415       13.65       18.09       20.96       28.42       29.48       26.18       30.32       33.78    
        29.39       37.94       43.42       45.56       48.98       44.89       51.28       58.71       52.85       51.29    
        56.29       57.29       65.65       62.84       61.05       60.78       68.22       79.06       102.7       107.9    
        124.3       143.5       159.7       191.0       211.0       225.6       236.6       251.2       262.5       294.6    
        327.0       371.1    
  36    0.000       0.000       0.000       0.000       0.000       32.50       32.69       29.00       40.75       35.27    
        16.07       18.48       22.04       20.35       20.54       22.77       26.29       28.64       29.30       30.67    
        29.91       31.96       42.47       44.05       41.54       48.55       49.29       53.60       53.32       54.30    
        61.49       59.12       63.33       64.14       57.55       60.31       68.96       83.00       103.4       108.4    
        109.7       136.4       172.4       175.6       201.1       213.7       234.1       251.6       268.0       289.1    
        311.2       339.2    
  37    0.000       0.000       0.000       0.000       0.000       0.000       51.00       52.00       53.09       41.43    
        23.02       17.07       25.62       24.90       19.15       21.17       30.42       34.81       32.87       35.05    
        30.27       35.05       38.49       42.78       45.13       49.11       53.76       57.43       53.82       53.15    
        56.05       59.71       62.22       62.48       56.42       67.34       72.47       83.55       94.90       114.3    
        118.4       159.5       177.3       188.8       206.6       223.0       236.9       251.1       259.7       281.1    
        310.1       343.0    
  38    0.000       0.000       0.000       0.000       0.000       0.000       0.000       71.00       52.85       31.67    
        22.60       22.56       22.07       23.60       23.12       26.78       28.86       30.00       36.46       41.24    
        37.57       39.85       42.75       43.07       41.56       49.19       55.35       55.00       53.60       53.45    
        64.93       64.02       70.83       68.71       63.73       73.56       77.45       77.54       98.63       109.9    
        120.2       163.3       198.1       219.7       263.3       269.5       252.4       258.2       272.3       285.0    
        299.5       316.6    
  39    0.000       0.000       0.000       0.000       0.000       0.000       0.000       0.000       36.00       26.96    
        27.46       24.76       25.08       39.93       65.11       36.80       27.30       30.76       35.05       40.98    
        40.07       40.05       44.09       45.43       43.90       48.40       55.34       50.31       51.53       55.86    
        66.80       70.20       74.95       67.05       71.53       68.89       75.44       69.13       92.18       106.8    
        116.0       137.4       168.3       221.0       261.7       280.6       287.0       284.4       291.5       297.7    
        308.5       312.7    
  40    0.000       0.000       0.000       0.000       0.000       0.000       0.000       0.000       0.000       25.00    
        29.11       31.00       45.98       60.52       78.78       51.52       37.51       53.30       42.48       39.96    
        41.89       47.51       52.21       48.77       48.65       51.51       52.38       48.36       50.62       59.64    
        61.30       67.00       61.20       66.05       76.00       82.07       85.87       82.43       95.27       109.9    
        110.8       120.9       161.4       200.1       235.8       262.5       300.2       305.7       315.6       324.5    
        331.0       329.7    
  41    0.000       0.000       0.000       0.000       0.000       0.000       0.000       0.000       0.000       0.000    
        30.00       41.75       66.41       72.20       83.80       71.39       56.58       59.33       44.38       40.95    
        45.75       44.68       55.51       50.78       52.24       60.16       55.96       56.24       56.44       57.90    
        63.82       70.07       63.62       65.53       81.37       69.10       84.47       95.73       102.6       110.3    
        133.0       160.8       163.1       185.0       215.5       236.4       281.1       332.3       371.8       374.2    
        362.0       352.8    
  42    0.000       0.000       0.000       0.000       0.000       0.000       0.000       0.000       0.000       0.000    
        0.000       44.00       60.50       77.22       89.98       90.26       83.98       69.44       49.07       46.92    
        51.02       55.67       53.49       57.57       56.98       58.84       60.62       59.32       58.97       60.07    
        63.56       68.24       73.98       65.59       76.67       71.78       80.73       102.1       105.7       104.6    
        113.4       153.8       189.8       209.7       258.1       275.9       302.8       354.3       408.2       428.2    
        393.5       389.3    
  43    0.000       0.000       0.000       0.000       0.000       0.000       0.000       0.000       0.000       0.000    
        0.000       0.000       70.00       87.06       93.31       105.9       122.3       80.62       62.72       50.78    
        54.05       58.08       56.49       57.07       58.00       59.78       61.90       63.85       59.07       60.98    
        56.47       70.25       73.49       77.09       85.62       85.05       82.83       93.80       102.6       85.17    
        111.2       150.0       203.5       235.4       272.9       298.0       329.4       354.3       377.6       410.5    
        393.9       398.5    
  44    0.000       0.000       0.000       0.000       0.000       0.000       0.000       0.000       0.000       0.000    
        0.000       0.000       0.000       95.00       106.8       113.5       123.6       112.8       68.83       51.28    
        57.00       61.16       61.37       60.50       59.86       58.14       63.00       63.47       65.00       61.37    
        66.25       68.95       70.80       78.07       85.38       83.87       86.25       101.3       108.0       118.0    
        130.1       171.0       196.4       239.1       277.6       310.2       320.2       331.9       350.6       372.8    
        402.4       433.8    
  45    0.000       0.000       0.000       0.000       0.000       0.000       0.000       0.000       0.000       0.000    
        0.000       0.000       0.000       0.000       111.0       104.5       108.3       112.4       98.27       69.64    
        61.71       59.59       62.97       61.59       62.40       69.36       67.96       65.46       68.11       69.12    
        73.10       70.88       72.37       75.93       86.80       86.68       78.89       95.34       110.0       126.8    
        155.3       166.8       206.7       256.3       278.8       289.3       321.7       324.3       344.5       390.5    
        428.6       500.4    
  46    0.000       0.000       0.000       0.000       0.000       0.000       0.000       0.000       0.000       0.000    
        0.000       0.000       0.000       0.000       0.000      100.00       105.1       117.2       122.1       95.91    
        65.02       61.95       63.59       61.13       67.64       69.80       65.17       72.21       73.60       73.10    
        71.95       77.20       77.07       81.83       83.07       85.31       84.27       90.93       109.8       128.6    
        128.3       152.8       221.8       264.5       267.3       282.2       309.5       342.2       369.4       381.5    
        430.6       495.8    
  47    0.000       0.000       0.000       0.000       0.000       0.000       0.000       0.000       0.000       0.000    
        0.000       0.000       0.000       0.000       0.000       0.000       124.0       115.9       120.6       79.69    
        65.28       61.14       64.60       64.15       65.00       68.41       68.75       72.38       72.68       76.87    
        79.07       80.84       76.17       81.55       81.20       91.56       86.52       86.60       123.6       134.6    
        129.5       151.7       188.3       227.3       256.5       282.2       321.4       381.8       420.0       423.6    
        434.8       451.1    
  48    0.000       0.000       0.000       0.000       0.000       0.000       0.000       0.000       0.000       0.000    
        0.000       0.000       0.000       0.000       0.000       0.000       0.000       98.00       91.65       77.09    
        58.02       63.24       65.63       66.38       69.20       70.25       71.77       77.67       74.84       72.15    
        79.09       81.24       84.07       87.07       83.28       89.42       94.05       86.93       117.6       128.3    
        117.6       166.8       195.2       239.5       262.0       288.4       342.0       412.3       413.8       445.2    
        493.9       482.8    
  49    0.000       0.000       0.000       0.000       0.000       0.000       0.000       0.000       0.000       0.000    
        0.000       0.000       0.000       0.000       0.000       0.000       0.000       0.000       83.00       78.00    
        64.24       65.15       62.56       69.32       71.90       73.04       73.56       81.39       80.75       81.95    
        78.49       80.12       82.45       85.84       85.65       76.88       90.00       90.22       117.4       135.5    
        127.5       160.9       218.3       255.6       276.5       323.7       366.3       402.1       433.4       468.3    
        508.7       527.1    
  50    0.000       0.000       0.000       0.000       0.000       0.000       0.000       0.000       0.000       0.000    
        0.000       0.000       0.000       0.000       0.000       0.000       0.000       0.000       0.000       69.00    
        78.57       79.73       68.71       68.30       70.98       72.24       78.34       81.47       81.90       77.39    
        81.10       91.42       95.11       92.93       84.57       81.15       94.40       96.82       108.5       122.8    
        143.0       168.5       202.4       258.9       295.2       333.7       381.3       421.8       458.5       484.8    
        527.0       554.7    
  51    0.000       0.000       0.000       0.000       0.000       0.000       0.000       0.000       0.000       0.000    
        0.000       0.000       0.000       0.000       0.000       0.000       0.000       0.000       0.000       0.000    
        116.0       101.4       91.07       74.88       72.61       73.84       76.85       84.07       85.27       81.44    
        85.50       90.32       96.46       100.1       89.17       91.20       104.9       104.7       110.3       118.9    
        156.6       181.3       222.8       297.8       332.8       338.4       380.3       409.2       426.6       441.0    
        511.2       505.6    
  52    0.000       0.000       0.000       0.000       0.000       0.000       0.000       0.000       0.000       0.000    
        0.000       0.000       0.000       0.000       0.000       0.000       0.000       0.000       0.000       0.000    
        0.000       123.0       110.8       94.39       77.05       74.49       79.02       86.07       83.24       88.43    
        90.41       82.00       89.49       83.41       91.71       89.87       98.68       103.6       110.1       116.0    
        152.8       176.3       230.7       279.1       297.1       327.1       349.3       370.8       408.6       447.6    
        443.8       404.2    
  53    0.000       0.000       0.000       0.000       0.000       0.000       0.000       0.000       0.000       0.000    
        0.000       0.000       0.000       0.000       0.000       0.000       0.000       0.000       0.000       0.000    
        0.000       0.000       110.0       96.29       97.76       76.38       76.49       92.30       93.82       87.12    
        86.82       94.66       97.26       97.93       98.56       94.69       101.4       103.0       112.3       115.0    
        133.2       159.8       201.6       243.4       269.9       302.8       327.7       365.0       378.7       375.3    
        355.1       337.0    
  54    0.000       0.000       0.000       0.000       0.000       0.000       0.000       0.000       0.000       0.000    
        0.000       0.000       0.000       0.000       0.000       0.000       0.000       0.000       0.000       0.000    
        0.000       0.000       0.000       98.50       103.1       96.54       96.90       96.11       97.71       86.78    
        92.40       96.22       103.9       112.8       118.7       114.2       113.2       114.6       112.8       115.9    
        132.7       153.7       185.0       215.2       248.6       271.7       305.0       312.5       304.7       289.9    
        281.4       313.8    
  55    0.000       0.000       0.000       0.000       0.000       0.000       0.000       0.000       0.000       0.000    
        0.000       0.000       0.000       0.000       0.000       0.000       0.000       0.000       0.000       0.000    
        0.000       0.000       0.000       0.000       105.0       107.5       108.7       117.2       121.6       115.0    
        101.5       102.6       106.4       113.0       120.1       116.0       115.4       112.6       113.7       111.2    
        117.6       148.4       174.6       197.1       221.4       244.4       251.9       259.0       241.1       250.5    
        289.6       334.8    
  56    0.000       0.000       0.000       0.000       0.000       0.000       0.000       0.000       0.000       0.000    
        0.000       0.000       0.000       0.000       0.000       0.000       0.000       0.000       0.000       0.000    
        0.000       0.000       0.000       0.000       0.000       127.0       131.7       142.0       146.7       131.8    
        108.1       108.5       108.3       112.2       117.5       118.8       114.7       114.9       114.1       116.0    
        121.3       129.9       152.8       177.4       190.4       206.4       210.0       212.6       217.6       238.2    
        266.6       282.5    
  57    0.000       0.000       0.000       0.000       0.000       0.000       0.000       0.000       0.000       0.000    
        0.000       0.000       0.000       0.000       0.000       0.000       0.000       0.000       0.000       0.000    
        0.000       0.000       0.000       0.000       0.000       0.000       154.0       145.3       139.1       113.1    
        112.4       111.3       112.0       119.7       126.8       123.7       113.0       115.9       116.0       117.9    
        125.2       118.5       127.5       147.9       166.1       184.5       186.6       191.8       190.7       209.4    
        238.0       289.8    
  58    0.000       0.000       0.000       0.000       0.000       0.000       0.000       0.000       0.000       0.000    
        0.000       0.000       0.000       0.000       0.000       0.000       0.000       0.000       0.000       0.000    
        0.000       0.000       0.000       0.000       0.000       0.000       0.000       141.0       122.1       115.3    
        112.9       115.8       121.1       127.8       123.4       122.2       115.1       112.2       118.3       117.1    
        126.8       121.9       128.5       140.8       153.3       160.2       166.6       174.2       201.1       228.3    
        264.4       323.8    
  59    0.000       0.000       0.000       0.000       0.000       0.000       0.000       0.000       0.000       0.000    
        0.000       0.000       0.000       0.000       0.000       0.000       0.000       0.000       0.000       0.000    
        0.000       0.000       0.000       0.000       0.000       0.000       0.000       0.000       120.0       115.0    
        115.4       117.5       117.0       116.6       116.6       122.6       118.9       122.1       121.0       115.4    
        126.0       124.8       131.6       131.9       143.3       155.5       173.4       191.9       206.3       233.7    
        275.1       351.3    
  60    0.000       0.000       0.000       0.000       0.000       0.000       0.000       0.000       0.000       0.000    
        0.000       0.000       0.000       0.000       0.000       0.000       0.000       0.000       0.000       0.000    
        0.000       0.000       0.000       0.000       0.000       0.000       0.000       0.000       0.000       119.0    
        111.0       117.0       117.0       119.4       120.0       122.5       123.8       125.1       118.7       120.3    
        124.6       127.0       133.5       134.8       136.5       150.4       167.8       180.9       203.5       224.5    
        267.7       325.4    
  61    0.000       0.000       0.000       0.000       0.000       0.000       0.000       0.000       0.000       0.000    
        0.000       0.000       0.000       0.000       0.000       0.000       0.000       0.000       0.000       0.000    
        0.000       0.000       0.000       0.000       0.000       0.000       0.000       0.000       0.000       0.000    
        110.0       115.4       116.1       116.3       119.2       123.9       122.0       121.6       126.6       121.8    
        124.2       129.4       134.3       135.8       137.0       142.1       162.3       184.0       200.2       225.7    
        250.7       280.3    
  62    0.000       0.000       0.000       0.000       0.000       0.000       0.000       0.000       0.000       0.000    
        0.000       0.000       0.000       0.000       0.000       0.000       0.000       0.000       0.000       0.000    
        0.000       0.000       0.000       0.000       0.000       0.000       0.000       0.000       0.000       0.000    
        0.000       117.5       119.3       120.9       121.9       122.7       123.5       126.2       128.0       134.8    
        134.0       129.8       134.0       133.7       136.7       142.9       157.1       186.9       232.6       274.6    
        285.3       0.000    
  63    0.000       0.000       0.000       0.000       0.000       0.000       0.000       0.000       0.000       0.000    
        0.000       0.000       0.000       0.000       0.000       0.000       0.000       0.000       0.000       0.000    
        0.000       0.000       0.000       0.000       0.000       0.000       0.000       0.000       0.000       0.000    
        0.000       0.000       125.0       125.9       122.7       124.9       125.5       126.8       131.0       139.6    
        136.5       137.3       134.0       139.5       138.2       141.2       154.2       204.4       257.2       274.8    
        0.000       0.000    
  64    0.000       0.000       0.000       0.000       0.000       0.000       0.000       0.000       0.000       0.000    
        0.000       0.000       0.000       0.000       0.000       0.000       0.000       0.000       0.000       0.000    
        0.000       0.000       0.000       0.000       0.000       0.000       0.000       0.000       0.000       0.000    
        0.000       0.000       0.000       124.0       130.6       125.6       129.4       127.2       131.7       135.5    
        133.2       137.7       137.4       138.0       145.1       146.8       162.5       205.4       269.0       0.000    
        0.000       0.000    
  65    0.000       0.000       0.000       0.000       0.000       0.000       0.000       0.000       0.000       0.000    
        0.000       0.000       0.000       0.000       0.000       0.000       0.000       0.000       0.000       0.000    
        0.000       0.000       0.000       0.000       0.000       0.000       0.000       0.000       0.000       0.000    
        0.000       0.000       0.000       0.000       124.0       125.1       134.8       135.5       137.6       137.3    
        139.8       143.2       140.4       142.5       143.5       145.8       163.0       200.2       0.000       0.000    
        0.000       0.000    
  66    0.000       0.000       0.000       0.000       0.000       0.000       0.000       0.000       0.000       0.000    
        0.000       0.000       0.000       0.000       0.000       0.000       0.000       0.000       0.000       0.000    
        0.000       0.000       0.000       0.000       0.000       0.000       0.000       0.000       0.000       0.000    
        0.000       0.000       0.000       0.000       0.000       128.0       135.3       139.5       139.0       136.3    
        142.0       145.2       144.0       146.7       144.9       146.9       149.8       0.000       0.000       0.000    
        0.000       0.000    
  67    0.000       0.000       0.000       0.000       0.000       0.000       0.000       0.000       0.000       0.000    
        0.000       0.000       0.000       0.000       0.000       0.000       0.000       0.000       0.000       0.000    
        0.000       0.000       0.000       0.000       0.000       0.000       0.000       0.000       0.000       0.000    
        0.000       0.000       0.000       0.000       0.000       0.000       133.0       136.8       138.1       143.4    
        147.5       147.9       144.3       146.9       147.8       147.8       0.000       0.000       0.000       0.000    
        0.000       0.000    
  68    0.000       0.000       0.000       0.000       0.000       0.000       0.000       0.000       0.000       0.000    
        0.000       0.000       0.000       0.000       0.000       0.000       0.000       0.000       0.000       0.000    
        0.000       0.000       0.000       0.000       0.000       0.000       0.000       0.000       0.000       0.000    
        0.000       0.000       0.000       0.000       0.000       0.000       0.000       143.0       147.0       144.5    
        150.0       148.1       150.9       152.5       150.2       0.000       0.000       0.000       0.000       0.000    
        0.000       0.000    



             MODEL LAYER BOTTOM EL. FOR LAYER   1
 READING ON UNIT   12 WITH FORMAT: (FREE)              

            1           2           3           4           5           6           7           8           9          10
           11          12          13          14          15          16          17          18          19          20
           21          22          23          24          25          26          27          28          29          30
           31          32          33          34          35          36          37          38          39          40
           41          42          43          44          45          46          47          48          49          50
           51          52
 ........................................................................................................................
   1   -45.00      -45.00      -45.00      -45.00      -45.00      -45.00      -45.00      -45.00       12.92       11.98    
        3.900       18.92       11.71       23.88       9.850       5.533       14.68       11.93      -1.643      -8.380    
       -12.66      -13.60      -10.29      -6.133      -1.700       6.512       21.84       27.92       25.33       36.98    
        47.72       63.93       74.90       94.50       114.0      -45.00      -45.00      -45.00      -45.00      -45.00    
       -45.00      -45.00      -45.00      -45.00      -45.00      -45.00      -45.00      -45.00      -45.00      -45.00    
       -45.00      -45.00    
   2   -45.00      -45.00      -45.00      -45.00      -45.00      -45.00      -45.00      -8.417       10.68       12.50    
        14.40       10.49       9.732       19.75       12.05       12.12       5.268      -14.40      -4.617      -14.33    
       -14.82      -18.51      -7.909      -4.537      -3.488       3.311       7.761       18.83       24.54       33.72    
        57.82       49.02       81.02       97.07       96.58       91.48      -45.00      -45.00      -45.00      -45.00    
       -45.00      -45.00      -45.00      -45.00      -45.00      -45.00      -45.00      -45.00      -45.00      -45.00    
       -45.00      -45.00    
   3   -45.00      -45.00      -45.00      -45.00      -45.00      -45.00     -0.6667      -19.43      -16.80      -17.32    
       -23.80      -34.24      -22.02      -2.293      -13.70      -15.69      -12.09      -25.83      -27.04      -28.55    
       -20.46      -24.02      -10.54      -1.556       4.000       3.550       12.44       19.93       25.60       34.00    
        48.47       47.09       52.12       76.90       85.27       98.12       124.3      -45.00      -45.00      -45.00    
       -45.00      -45.00      -45.00      -45.00      -45.00      -45.00      -45.00      -45.00      -45.00      -45.00    
       -45.00      -45.00    
   4   -45.00      -45.00      -45.00      -45.00      -45.00      -22.64      -16.07      -30.56      -36.70      -36.02    
       -38.86      -36.92      -36.85      -37.17      -38.13      -38.70      -34.68      -32.14      -26.57      -28.00    
       -25.83      -19.18      -10.63     -0.1707       4.225       8.044       17.46       23.92       29.93       33.76    
        41.20       47.40       45.39       72.40       83.82       97.29       150.2       189.5      -45.00      -45.00    
       -45.00      -45.00      -45.00      -45.00      -45.00      -45.00      -45.00      -45.00      -45.00      -45.00    
       -45.00      -45.00    
   5   -45.00      -45.00      -45.00      -45.00      -31.17      -29.02      -30.95      -36.05      -36.80      -38.56    
       -41.00      -38.98      -34.87      -37.60      -37.38      -36.49      -36.40      -34.11      -30.21      -27.47    
       -27.47      -14.47      -8.780      -2.900       4.049       7.489       15.05       23.71       33.83       33.87    
        43.88       58.78       65.37       72.34       94.22       107.6       143.5       171.8       198.4      -45.00    
       -45.00      -45.00      -45.00      -45.00      -45.00      -45.00      -45.00      -45.00      -45.00      -45.00    
       -45.00      -45.00    
   6   -55.00      -55.00      -55.00      -55.00      -36.81      -34.63      -36.92      -37.71      -37.95      -36.04    
       -36.93      -36.49      -37.72      -37.48      -39.73      -36.17      -35.50      -33.30      -26.37      -30.42    
       -20.36      -15.32      -10.18      -3.951       3.125       8.467       14.93       14.17       24.18       37.60    
        49.12       66.62       88.18       92.51       92.83       101.3       134.5       174.4       210.5       208.3    
        154.0      -45.00      -45.00      -45.00      -45.00      -45.00      -45.00      -45.00      -45.00      -45.00    
       -45.00      -45.00    
   7   -55.00      -55.00      -55.00      -55.00      -36.07      -35.05      -36.32      -32.02      -39.32      -39.30    
       -34.02      -34.50      -36.82      -34.46      -33.32      -26.47      -28.33      -20.12       5.875      -7.463    
       -21.51      -20.90       3.279       7.022       3.319       5.450       11.46       11.95       21.23       43.20    
        65.00       63.23       85.70       83.17       87.93       105.0       110.1       111.5       121.6       125.5    
        126.6      -45.00      -45.00      -45.00      -45.00      -45.00      -45.00      -45.00      -45.00      -45.00    
       -45.00      -45.00    
   8   -55.00      -55.00      -55.00      -55.00      -37.30      -35.80      -35.93      -34.00      -40.05      -39.20    
       -36.90      -37.43      -32.40      -36.53      -34.05      -33.76      -29.66      -16.00       4.537       22.07    
       -9.045      -16.62      -6.977      0.4444      -2.050       2.171       5.975       5.378       19.33       39.76    
        43.68       60.24       80.44       94.03       85.05       90.41       98.67       126.2       131.3       138.5    
        130.8       142.9      -45.00      -45.00      -45.00      -45.00      -45.00      -45.00      -45.00      -45.00    
       -45.00      -45.00    
   9   -55.00      -55.00      -55.00      -55.00      -37.73      -37.98      -35.10      -37.49      -39.93      -35.55    
       -35.44      -36.30      -34.32      -34.40      -33.59      -33.04      -30.90      -19.15       1.048       33.66    
        14.33      -2.585      -12.12      -11.16      -9.390       3.100     -0.4889      0.1837       8.854       13.25    
        21.83       46.07       58.67       67.73       74.11       91.94       105.2       130.1       172.1       191.4    
        212.9       198.6       193.6      -45.00      -45.00      -45.00      -45.00      -45.00      -45.00      -45.00    
       -45.00      -45.00    
  10   -45.00      -55.00      -55.00      -55.00      -37.05      -38.83      -36.45      -37.76      -36.46      -34.18    
       -31.90      -31.43      -30.55      -33.15      -28.34      -29.68      -25.19      -18.09       16.62       48.92    
        42.44      0.6750      -10.36      -13.41      -15.55     -0.4222      -1.196      -1.805       4.275       13.83    
        20.67       26.41       40.36       49.27       57.58       73.88       88.85       119.0       156.1       191.4    
        203.2       198.6       200.8       219.0      -45.00      -45.00      -45.00      -45.00      -45.00      -45.00    
       -45.00      -45.00    
  11   -45.00      -55.00      -55.00      -55.00      -37.10      -37.76      -38.33      -40.60      -38.27      -37.17    
       -26.24      -33.58      -31.51      -33.62      -31.55      -24.82      -15.67     -0.5000       27.96       41.29    
        5.750      -6.756      -18.48      -15.53      -15.85      0.4286      -5.568      -2.900       4.098       19.05    
        56.48       47.27       49.83       55.62       73.26       83.29       96.62       105.2       118.2       132.4    
        153.8       146.8       170.6       168.3       161.2      -45.00      -45.00      -45.00      -45.00      -45.00    
       -45.00      -45.00    
  12   -45.00      -55.00      -55.00      -55.00      -33.59      -37.98      -38.04      -39.65      -39.41      -38.16    
       -32.22      -30.37      -31.43      -32.62      -36.67      -25.66      -20.27       7.667       41.41       14.80    
       -11.27      -17.46      -19.79      -15.55      -9.902      -12.64      -11.77      -7.122      -5.178       19.52    
        65.18       77.20       88.72       72.78       71.54       92.07       101.4       82.75       82.39       92.32    
        101.1       104.0       115.3       132.4       142.5       188.3      -45.00      -45.00      -45.00      -45.00    
       -45.00      -45.00    
  13   -45.00      -55.00      -55.00      -55.00      -33.67      -36.09      -34.22      -39.24      -39.67      -37.04    
       -36.52      -32.53      -30.02      -28.20      -33.83      -30.92      -22.22      -15.47       8.698       3.444    
       -29.51      -18.73      -17.75      -13.63      -10.37      -19.57      -14.42      -8.133      -13.48       10.44    
        27.66       37.70       52.74       62.57       54.80       78.02       85.45       69.76       68.05       89.02    
        93.81       103.8       99.22       83.23       128.5       217.0       226.9      -45.00      -45.00      -45.00    
       -45.00      -45.00    
  14   -45.00      -55.00      -55.00      -55.00      -35.43      -38.20      -35.93      -38.35      -38.67      -37.76    
       -37.32      -35.95      -29.60      -27.98      -19.02      -27.49      -27.71      -22.53      -23.69      -25.27    
       -30.33      -14.35      -18.44      -5.950      -17.73      -26.84      -17.56      -17.12      -1.800       4.122    
        1.975     -0.8537       7.540       13.23       27.27       43.02       38.62       49.65       58.29       61.24    
        69.94       79.60       95.85       107.2       157.0       220.6       215.0       208.7      -45.00      -45.00    
       -45.00      -45.00    
  15   -45.00      -55.00      -55.00      -55.00      -55.00      -38.10      -38.98      -39.62      -36.71      -37.68    
       -38.12      -36.20      -32.04      -28.17      -32.12      -29.89      -33.55      -33.38      -26.44      -27.59    
       -19.55      -17.15      -12.61      -13.17      -13.50      -21.24      -14.85      -17.12      -5.093      -7.634    
       -4.067      -3.532       2.256       4.000       9.220       15.35       19.55       35.81       44.96       51.40    
        52.27       70.71       86.68       108.4       164.6       173.7       177.2       182.5       230.1      -45.00    
       -45.00      -45.00    
  16   -45.00      -55.00      -55.00      -55.00      -55.00      -38.76      -36.02      -38.44      -38.46      -37.70    
       -35.90      -35.02      -31.40      -35.16      -34.58      -29.04      -32.08      -32.15      -30.98      -25.20    
       -22.93      -14.60      -11.10      -15.31      -16.15      -13.07      -18.73      -6.333     -0.9111      -8.909    
       -2.146      -3.111       3.475       2.585       2.275       4.936       14.44       17.88       32.95       36.53    
        40.61       54.90       71.10       102.8       126.2       145.0       168.1       213.2       245.4       216.0    
       -45.00      -45.00    
  17   -45.00      -55.00      -55.00      -55.00      -55.00      -38.42      -38.12      -38.07      -37.95      -37.10    
       -36.74      -34.24      -32.40      -32.46      -35.51      -32.75      -32.02      -35.60      -29.11      -26.38    
       -23.60      -10.30      -17.91      -19.86      -12.30      -11.22      -18.13      -3.604      -5.250      -9.707    
      -0.8837      -1.905       4.610     -0.3095      1.0000       9.955       11.88       17.62       23.16       22.17    
        27.88       28.66       49.31       89.42       108.7       121.6       165.8       200.5       168.6       128.8    
        123.2      -45.00    
  18   -45.00      -55.00      -55.00      -55.00      -55.00      -37.37      -38.16      -38.00      -36.64      -36.11    
       -35.48      -29.92      -34.29      -33.25      -35.40      -33.95      -32.33      -35.87      -32.48      -30.37    
       -23.20      -11.15      -26.24      -17.65      -13.73      -12.29      -11.04     -0.7000      1.0000      -9.900    
       -1.867      -7.095     -0.2000       5.047       2.800       15.73       17.50       16.12       22.64       15.33    
        27.11       23.45       34.36       63.70       73.59       113.5       142.0       116.1       78.47       49.83    
        49.55       41.92    
  19   -45.00      -55.00      -55.00      -55.00      -55.00      -38.05      -35.45      -36.62      -35.23      -36.80    
       -35.14      -33.51      -36.67      -34.69      -34.06      -35.24      -30.60      -32.57      -19.41      -25.58    
       -15.73      -25.26      -20.46      -19.44      -25.80      -11.95      -14.57      -2.439      -1.150      -11.98    
       -9.304      -6.886       3.525       8.432       5.500       10.52       10.51       9.277       13.33       15.67    
        23.68       26.76       23.77       29.51       31.50       67.12       53.93       43.27       36.25       32.27    
        35.00       40.03    
  20   -45.00      -55.00      -55.00      -55.00      -55.00      -36.06      -34.74      -36.51      -36.22      -36.49    
       -36.00      -36.45      -37.84      -36.28      -36.95      -35.17      -32.49      -29.91      -22.80      -21.61    
       -7.727      -21.00      -16.90      -28.05      -23.67      -12.24      -20.98      -4.415      -4.689      -17.73    
       -14.95      -14.02       4.415       4.667       3.000     -0.4186       11.84       12.02       15.73       22.49    
        20.00       23.91       25.71       27.20       29.98       39.67       39.68       30.60       27.48       34.93    
        33.44       39.31    
  21   -45.00      -55.00      -55.00      -55.00      -55.00      -34.23      -38.15      -37.08      -37.32      -37.91    
       -34.84      -34.40      -38.41      -36.11      -38.58      -34.80      -33.07      -25.16      -26.53      -19.53    
       -11.25      -16.86      -18.54      -20.52      -20.28      -15.23      -18.64      -8.091      -5.136      -18.26    
       -10.88      -10.85      -7.591      -3.674      0.2444       5.279       20.73       17.05       14.61       16.12    
        15.36       17.14       23.51       29.44       33.29       34.37       34.75       24.27       25.84       38.33    
        41.57       50.44    
  22   -45.00      -55.00      -55.00      -55.00      -55.00      -33.02      -39.75      -38.44      -39.40      -38.73    
       -37.12      -37.88      -37.20      -33.60      -34.56      -31.98      -32.43      -28.69      -22.80      -3.750    
       -9.444      -25.32      -25.38      -19.15      -22.16      -18.59      -17.40      -6.146      -20.04      -11.98    
       -7.537      -1.714      -12.96       5.488       6.098       1.450       28.78       44.41       18.75       14.62    
        16.49       20.07       22.92       21.83       29.91       33.53       42.05       36.04       41.14       67.60    
        127.2       133.1    
  23   -45.00      -55.00      -55.00      -55.00      -55.00      -55.00      -37.93      -37.30      -38.28      -38.53    
       -37.46      -37.02      -35.86      -31.54      -28.63      -31.49      -33.02      -30.66      -20.60      -15.72    
       -20.60      -19.40      -23.22      -14.40      -16.48      -15.05      -13.85      -5.318      -11.37      -9.738    
       -7.600      -6.532      -9.512      -6.098      -2.125       9.467       21.80       33.81       26.16       18.80    
        28.49       19.30       15.76       27.24       33.22       28.96       32.09       50.98       74.68       100.5    
        140.6       198.8    
  24   -45.00      -40.60      -55.00      -55.00      -55.00      -55.00      -36.40      -37.96      -37.03      -35.20    
       -36.58      -34.96      -33.95      -35.00      -33.00      -33.36      -31.71      -33.70      -14.68      -23.13    
       -23.60      -22.24      -23.10      -17.07      -20.08      -17.85      -16.98      -7.617      -9.511      -13.70    
       -13.85      -13.09      -8.854      -3.300      -6.756      -3.500       11.00       17.12       37.59       48.36    
        78.93       46.27       26.15       35.76       38.67       33.44       53.17       97.79       151.7       151.0    
        176.8       207.7    
  25   -41.17      -33.20      -55.00      -55.00      -55.00      -55.00      -37.00      -37.43      -37.98      -37.75    
       -37.04      -34.38      -34.81      -31.27      -30.40      -31.93      -33.58      -24.73      -23.98      -26.17    
       -25.85      -21.73      -24.86      -25.90      -23.59      -20.83      -14.51      -5.477      -3.488      -9.175    
       -5.822      -17.41      -12.57      -1.047      -6.660      -9.976       8.450       31.95       39.60       55.20    
        86.41       92.27       79.40       81.97       92.90       136.7       125.7       156.8       201.2       198.0    
        215.7       232.1    
  26   -34.67      -33.00      -55.00      -55.00      -55.00      -55.00      -37.20      -34.59      -37.65      -38.71    
       -35.06      -35.71      -35.10      -33.83      -31.62      -28.20      -27.56      -21.02      -26.09      -23.75    
       -26.54      -21.80      -25.93      -21.69      -12.96      -17.50      -18.56      -8.293      -5.725      -4.463    
       -3.800      -14.51      -12.73      -6.698      -14.93      -11.38       10.93       34.68       49.23       65.84    
        63.24       72.84       102.5       116.4       136.5       172.8       159.0       177.3       219.5       220.4    
        223.4       218.5    
  27   -33.00      -33.00      -55.00      -55.00      -55.00      -55.00      -39.63      -38.58      -37.48      -36.91    
       -32.16      -35.53      -32.17      -34.70      -30.93      -31.53      -29.20      -29.44      -24.64      -21.24    
       -20.67      -25.82      -24.74      -17.91      -15.93      -19.89      -17.61      -12.15      -7.488      -14.96    
       -2.822      -5.833      -9.268      -13.64     -0.4500      -4.268       24.17       33.76       44.40       57.20    
        77.78       103.1       114.5       115.4       121.2       128.4       158.8       198.3       214.0       219.2    
        209.5       227.7    
  28   -33.00      -33.00      -55.00      -55.00      -55.00      -55.00      -37.91      -39.90      -39.88      -38.89    
       -37.15      -36.41      -35.77      -33.74      -31.49      -30.34      -20.10      -27.87      -27.24      -18.27    
       -20.82      -21.86      -13.61      -11.62      -13.49      -16.53      -13.60      -3.093      -6.622      -21.56    
       -3.300      -6.829      -20.02      -11.80       1.707      -5.932       41.21       39.20       40.95       51.85    
        76.48       117.5       149.1       145.4       147.5       139.4       177.1       197.9       189.8       203.7    
        221.8       257.9    
  29   -33.00      -33.00      -55.00      -55.00      -55.00      -55.00      -36.15      -39.34      -38.93      -36.49    
       -34.02      -36.84      -32.50      -35.74      -33.05      -26.33      -25.59      -27.76      -26.82      -25.25    
       -25.64      -24.10      -18.30      -15.83      -12.48      -12.02      -4.489      -3.070      -6.400      -8.800    
       -1.366      -1.850      -1.200      0.4318       3.622      -3.976       15.13       27.98       35.78       57.29    
        94.58       157.1       165.9       175.0       150.4       155.1       171.5       183.4       207.9       231.5    
        252.8       300.7    
  30   -33.00      -33.00      -55.00      -55.00      -55.00      -55.00      -38.20      -38.55      -37.73      -36.58    
       -36.90      -35.65      -33.49      -29.73      -27.25      -26.46      -28.10      -25.80      -22.33      -24.61    
       -26.04      -20.45      -20.59      -16.32      -9.700      -9.442     -0.4390      -8.000      -7.955      -8.707    
      -0.7750      6.8182E-02   4.306     -0.3571      -6.100       6.000       11.75       32.72       45.32       67.43    
        121.7       137.4       157.2       161.1       149.1       171.4       172.2       180.6       203.8       233.0    
        280.9       331.7    
  31   -33.00      -33.00      -55.00      -55.00      -55.00      -55.00      -36.81      -38.02      -37.37      -33.95    
       -36.22      -36.59      -36.79      -30.67      -23.02      -25.40      -24.62      -25.62      -23.88      -19.11    
       -18.34      -18.00      -13.36      -12.10      -3.625      -3.098      -3.750      -7.422      -5.049      -3.907    
       -2.200      0.4255      -2.659      -18.38      -14.24      -3.111       11.38       38.42       55.89       74.89    
        112.8       109.8       133.8       146.1       148.7       158.0       185.0       205.2       209.2       224.1    
        247.9       307.6    
  32   -45.00      -33.00      -55.00      -55.00      -55.00      -31.33      -35.02      -35.09      -36.63      -33.53    
       -33.20      -37.11      -32.41      -28.42      -22.85      -23.91      -15.95      -22.12      -22.25      -20.04    
       -17.53      -15.48      -9.600      -10.02      -3.415       2.300      -8.122      -2.489      -7.044      4.7619E-02
       0.6429      -2.750       5.250      -13.85      -4.429       4.362       16.27       39.46       59.07       59.58    
        73.49       84.78       108.4       144.6       162.1       181.1       203.7       197.8       222.3       241.9    
        252.7       279.4    
  33   -45.00      -45.00      -55.00      -55.00      -55.00      -30.30      -35.74      -34.49      -37.67      -36.24    
       -33.70      -33.26      -31.93      -26.41      -24.05      -16.20      -21.63      -20.61      -17.28      -20.70    
       -19.27      -11.32      -8.089      -3.902      -3.175       4.628       4.720      -3.581     -0.1750       1.610    
        3.444       4.975       10.68       2.977       8.040       19.49       28.24       27.12       49.73       56.98    
        69.56       78.11       107.4       139.6       161.0       186.2       211.6       210.8       236.8       252.8    
        274.6       299.5    
  34   -45.00      -45.00      -55.00      -55.00      -55.00      -34.46      -37.38      -39.83      -38.27      -37.56    
       -35.87      -36.33      -30.83      -26.83      -16.24      -16.39      -19.53      -18.59      -18.98      -15.07    
       -16.02      -5.439      -5.356      0.3810       1.133       1.318       7.591       3.450       5.756       5.976    
        7.818       13.07       14.09       8.930       9.395       20.22       25.45       34.00       47.35       60.80    
        71.89       73.73       108.0       142.2       171.7       194.1       196.2       200.0       218.3       259.5    
        278.6       304.8    
  35   -45.00      -45.00      -45.00      -45.00      -38.00      -33.74      -32.52      -34.53      -23.45      -30.91    
       -32.12      -35.59      -31.35      -26.91      -24.04      -16.58      -15.52      -18.82      -14.68      -11.23    
       -15.61      -7.064      -1.578      0.5581       3.976     -0.1111       6.275       13.71       7.850       6.286    
        11.29       12.29       20.65       17.84       16.05       15.77       23.22       34.06       57.73       62.92    
        79.34       98.51       114.7       146.0       166.0       180.6       191.6       206.2       217.5       249.6    
        282.0       326.1    
  36   -45.00      -45.00      -45.00      -45.00      -45.00      -12.50      -12.31      -16.00      -4.250      -9.733    
       -28.93      -26.52      -22.96      -24.65      -24.46      -22.23      -18.71      -16.36      -15.70      -14.33    
       -15.09      -13.04      -2.525     -0.9512      -3.463       3.545       4.293       8.605       8.319       9.295    
        16.49       14.12       18.33       19.14       12.55       15.31       23.96       38.00       58.42       63.39    
        64.72       91.40       127.4       130.6       156.1       168.7       189.1       206.6       223.0       244.1    
        266.2       294.2    
  37   -45.00      -45.00      -45.00      -45.00      -45.00      -45.00       6.000       7.000       8.091      -3.571    
       -21.98      -27.93      -19.38      -20.10      -25.85      -23.83      -14.58      -10.19      -12.13      -9.955    
       -14.73      -9.950      -6.512      -2.225      0.1333       4.114       8.756       12.43       8.822       8.146    
        11.05       14.71       17.22       17.48       11.42       22.34       27.47       38.55       49.90       69.35    
        73.43       114.5       132.3       143.8       161.6       178.0       191.9       206.1       214.7       236.1    
        265.1       298.0    
  38   -45.00      -45.00      -45.00      -45.00      -45.00      -45.00      -45.00       26.00       7.853      -13.33    
       -22.40      -22.44      -22.93      -21.40      -21.88      -18.22      -16.14      -15.00      -8.537      -3.756    
       -7.432      -5.146      -2.250      -1.933      -3.438       4.190       10.35      10.000       8.605       8.450    
        19.93       19.02       25.83       23.71       18.73       28.56       32.45       32.54       53.63       64.88    
        75.24       118.3       153.1       174.7       218.3       224.5       207.4       213.2       227.3       240.1    
        254.5       271.6    
  39   -45.00      -45.00      -45.00      -45.00      -45.00      -45.00      -45.00      -45.00      -9.000      -18.04    
       -17.54      -20.24      -19.92      -5.071       20.11      -8.204      -17.70      -14.24      -9.950      -4.022    
       -4.927      -4.952     -0.9111      0.4255      -1.098       3.400       10.34       5.311       6.525       10.86    
        21.80       25.20       29.95       22.05       26.52       23.89       30.44       24.13       47.18       61.82    
        71.05       92.45       123.3       176.0       216.7       235.6       242.0       239.4       246.5       252.7    
        263.5       267.7    
  40   -45.00      -45.00      -45.00      -45.00      -45.00      -45.00      -45.00      -45.00      -45.00      -20.00    
       -15.89      -14.00      0.9778       15.52       33.78       6.523      -7.488       8.300      -2.524      -5.043    
       -3.111       2.512       7.214       3.773       3.650       6.512       7.381       3.362       5.622       14.64    
        16.30       22.00       16.20       21.05       31.00       37.07       40.87       37.42       50.27       64.90    
        65.85       75.90       116.4       155.1       190.8       217.5       255.2       260.7       270.6       279.5    
        286.0       284.7    
  41   -45.00      -45.00      -45.00      -45.00      -45.00      -45.00      -45.00      -45.00      -45.00      -45.00    
       -15.00      -3.250       21.41       27.20       38.80       26.39       11.57       14.33     -0.6200      -4.047    
       0.7500     -0.3171       10.51       5.775       7.244       15.16       10.96       11.24       11.44       12.90    
        18.82       25.07       18.62       20.53       36.37       24.10       39.47       50.73       57.64       65.32    
        87.95       115.8       118.1       140.0       170.5       191.4       236.1       287.3       326.8       329.2    
        317.0       307.8    
  42   -45.00      -45.00      -45.00      -45.00      -45.00      -45.00      -45.00      -45.00      -45.00      -45.00    
       -45.00     -1.0000       15.50       32.22       44.98       45.26       38.98       24.44       4.068       1.925    
        6.024       10.67       8.488       12.57       11.98       13.84       15.62       14.32       13.98       15.07    
        18.56       23.24       28.98       20.59       31.67       26.77       35.73       57.14       60.65       59.58    
        68.43       108.8       144.8       164.7       213.1       230.9       257.8       309.3       363.2       383.2    
        348.5       344.3    
  43   -45.00      -45.00      -45.00      -45.00      -45.00      -45.00      -45.00      -45.00      -45.00      -45.00    
       -45.00      -45.00       25.00       42.06       48.31       60.86       77.27       35.62       17.73       5.780    
        9.050       13.08       11.49       12.07       13.00       14.78       16.90       18.85       14.07       15.98    
        11.47       25.25       28.49       32.09       40.62       40.05       37.83       48.80       57.60       40.17    
        66.15       105.0       158.5       190.4       227.9       253.0       284.4       309.3       332.6       365.5    
        348.9       353.5    
  44   -45.00      -45.00      -45.00      -45.00      -45.00      -45.00      -45.00      -45.00      -45.00      -45.00    
[...]
   LAYER,ROW,COL  LAYER,ROW,COL  LAYER,ROW,COL  LAYER,ROW,COL  LAYER,ROW,COL
 ---------------------------------------------------------------------------
  1 -0.1593E-04  0 -0.2057E-06  0 -0.1522E-08  1 -0.1540E-10
   (  1, 12, 11)  (  1, 11, 12)  (  1, 33,  3)  (  1, 32,  4)


 UBUDSV SAVING "      ZETASRF  1" ON UNIT170 AT TIME STEP119, STRESS PERIOD    2


                      VOLUMETRIC SWI ZONE BUDGET FOR ENTIRE MODEL
                     AT END OF TIME STEP  119 IN STRESS PERIOD   2
                                      ZONE     1
  -----------------------------------------------------------------------------------

        CUMULATIVE VOLUMES      L**3       RATES FOR THIS TIME STEP      L**3/T
        ------------------                 ------------------------

              IN:                                      IN:
              ---                                      ---
             BOUNDARIES =   886600832.0000            BOUNDARIES =           0.1774
          CONSTANT HEAD =           0.0000         CONSTANT HEAD =           0.0000
            ZONE CHANGE =   227331520.0000           ZONE CHANGE =       3.8307E-02
       ZONE CHG TIP/TOE =    15934100.0000      ZONE CHG TIP/TOE =       7.2776E-03
            ZONE MIXING =           0.0000           ZONE MIXING =           0.0000

               TOTAL IN =  1129866496.0000              TOTAL IN =           0.2229

             OUT:                                     OUT:
             ----                                     ----
             BOUNDARIES =  1030022848.0000            BOUNDARIES =           0.1967
          CONSTANT HEAD =           0.0000         CONSTANT HEAD =           0.0000
            ZONE CHANGE =    38514396.0000           ZONE CHANGE =       1.4513E-02
       ZONE CHG TIP/TOE =    12330367.0000      ZONE CHG TIP/TOE =       3.5025E-03
            ZONE MIXING =     3210418.0000           ZONE MIXING =       1.2260E-02

              TOTAL OUT =  1084078080.0000             TOTAL OUT =           0.2270

               IN - OUT =    45788416.0000              IN - OUT =      -4.0656E-03

    PERCENT DISCREPANCY =           4.14     PERCENT DISCREPANCY =          -1.81



                      VOLUMETRIC SWI ZONE BUDGET FOR ENTIRE MODEL
                     AT END OF TIME STEP  119 IN STRESS PERIOD   2
                                      ZONE     2
  -----------------------------------------------------------------------------------

        CUMULATIVE VOLUMES      L**3       RATES FOR THIS TIME STEP      L**3/T
        ------------------                 ------------------------

              IN:                                      IN:
              ---                                      ---
             BOUNDARIES =   200735136.0000            BOUNDARIES =           0.1441
          CONSTANT HEAD =           0.0000         CONSTANT HEAD =           0.0000
            ZONE CHANGE =    32293126.0000           ZONE CHANGE =       1.1141E-02
       ZONE CHG TIP/TOE =    41286504.0000      ZONE CHG TIP/TOE =       8.8903E-03
            ZONE MIXING =     3210418.0000           ZONE MIXING =       1.2260E-02

               TOTAL IN =   277525184.0000              TOTAL IN =           0.1763

             OUT:                                     OUT:
             ----                                     ----
             BOUNDARIES =   169615712.0000            BOUNDARIES =           0.1537
          CONSTANT HEAD =           0.0000         CONSTANT HEAD =           0.0000
            ZONE CHANGE =    87053360.0000           ZONE CHANGE =       1.9670E-02
       ZONE CHG TIP/TOE =    10127823.0000      ZONE CHG TIP/TOE =       3.7560E-03
            ZONE MIXING =           0.0000           ZONE MIXING =           0.0000

              TOTAL OUT =   266796896.0000             TOTAL OUT =           0.1771

               IN - OUT =    10728288.0000              IN - OUT =      -7.5564E-04

    PERCENT DISCREPANCY =           3.94     PERCENT DISCREPANCY =          -0.43


 HEAD WILL BE SAVED ON UNIT   37 AT END OF TIME STEP  119, STRESS PERIOD    2

 DRAWDOWN WILL BE SAVED ON UNIT   38 AT END OF TIME STEP  119, STRESS PERIOD    2
1
  VOLUMETRIC BUDGET FOR ENTIRE MODEL AT END OF TIME STEP  119, STRESS PERIOD   2
  ------------------------------------------------------------------------------

     CUMULATIVE VOLUMES      L**3       RATES FOR THIS TIME STEP      L**3/T
     ------------------                 ------------------------

           IN:                                      IN:
           ---                                      ---
             STORAGE =   107082184.0000               STORAGE =       2.9257E-02
       CONSTANT HEAD =           0.0000         CONSTANT HEAD =           0.0000
               WELLS =           0.0000                 WELLS =           0.0000
       RIVER LEAKAGE =   182737504.0000         RIVER LEAKAGE =       3.4000E-02
                  ET =           0.0000                    ET =           0.0000
     HEAD DEP BOUNDS =   214025120.0000       HEAD DEP BOUNDS =           0.1504
            RECHARGE =   753655808.0000              RECHARGE =           0.1566
          SWIADDTOCH =           0.0000            SWIADDTOCH =           0.0000

            TOTAL IN =  1257500672.0000              TOTAL IN =           0.3703

          OUT:                                     OUT:
          ----                                     ----
             STORAGE =      248161.8594               STORAGE =       2.6119E-04
       CONSTANT HEAD =           0.0000         CONSTANT HEAD =           0.0000
               WELLS =   712493248.0000                 WELLS =           0.3700
       RIVER LEAKAGE =    21630804.0000         RIVER LEAKAGE =           0.0000
                  ET =   166413648.0000                    ET =           0.0000
     HEAD DEP BOUNDS =   356727456.0000       HEAD DEP BOUNDS =           0.0000
            RECHARGE =           0.0000              RECHARGE =           0.0000
          SWIADDTOCH =           0.0000            SWIADDTOCH =           0.0000

           TOTAL OUT =  1257513344.0000             TOTAL OUT =           0.3703

            IN - OUT =      -12672.0000              IN - OUT =           0.0000

 PERCENT DISCREPANCY =          -0.00     PERCENT DISCREPANCY =           0.00






         TIME SUMMARY AT END OF TIME STEP  119 IN STRESS PERIOD    2
                    SECONDS     MINUTES      HOURS       DAYS        YEARS
                    -----------------------------------------------------------
   TIME STEP LENGTH 1.57680E+07 2.62800E+05  4380.0      182.50     0.49966    
 STRESS PERIOD TIME 1.87640E+09 3.12733E+07 5.21221E+05  21718.      59.459    
         TOTAL TIME 5.03000E+09 8.38333E+07 1.39722E+06  58218.      159.39    
1
 
 SOLVING FOR HEAD 

 CELL CONVERSIONS FOR ITER.=  2  LAYER=  2  STEP=120  PERIOD=   2   (ROW,COL)
    DRY(  5, 31)   DRY( 10, 21)   
    19 CALLS TO PCG ROUTINE FOR TIME STEP 120 IN STRESS PERIOD    2
    43 TOTAL ITERATIONS

 MAXIMUM HEAD CHANGE FOR EACH ITERATION (1 INDICATES THE FIRST INNER ITERATION):

    HEAD CHANGE    HEAD CHANGE    HEAD CHANGE    HEAD CHANGE    HEAD CHANGE 
   LAYER,ROW,COL  LAYER,ROW,COL  LAYER,ROW,COL  LAYER,ROW,COL  LAYER,ROW,COL
 ---------------------------------------------------------------------------
  1  0.2732      0 -0.1142      0 -0.2425E-01  0  0.7980E-02  0 -0.1695E-02
   (  2, 18, 12)  (  1, 17, 12)  (  2, 14, 13)  (  1, 17, 11)  (  1, 19, 11)
  0 -0.5634E-03  1  0.1694E-01  0  0.6441E-02  0  0.1672E-02  0  0.3947E-03
   (  2,  6, 10)  (  2, 51, 34)  (  2, 51, 34)  (  2, 51, 34)  (  2, 51, 34)
  1 -0.2085E-01  0 -0.3096E-03  1  0.1718E-01  0  0.2480E-03  1 -0.1418E-01
   (  2, 51, 34)  (  2, 51, 34)  (  2, 51, 34)  (  2, 51, 34)  (  2, 51, 34)
  0 -0.2028E-03  1  0.1162E-01  0  0.1736E-03  1 -0.9568E-02  0 -0.1394E-03
   (  2, 51, 34)  (  2, 51, 34)  (  2, 51, 34)  (  2, 51, 34)  (  2, 51, 34)
  1  0.7846E-02  0  0.1162E-03  1 -0.6454E-02  0 -0.9355E-04  1  0.5296E-02
   (  2, 51, 34)  (  2, 51, 34)  (  2, 51, 34)  (  2, 51, 34)  (  2, 51, 34)
  0  0.7733E-04  1 -0.4355E-02  0 -0.6247E-04  1  0.3576E-02  0  0.5138E-04
   (  2, 51, 34)  (  2, 51, 34)  (  2, 51, 34)  (  2, 51, 34)  (  2, 51, 34)
  1 -0.2941E-02  0 -0.4159E-04  1  0.2417E-02  0  0.3406E-04  1 -0.1988E-02
   (  2, 51, 34)  (  2, 51, 34)  (  2, 51, 34)  (  2, 51, 34)  (  2, 51, 34)
  0 -0.2759E-04  1  0.1635E-02  0  0.2253E-04  1 -0.1346E-02  0 -0.1824E-04
   (  2, 51, 34)  (  2, 51, 34)  (  2, 51, 34)  (  2, 51, 34)  (  2, 51, 34)
  1  0.1107E-02  0  0.1483E-04  1 -0.9123E-03
   (  2, 51, 34)  (  2, 51, 34)  (  2, 51, 34)

 MAXIMUM RESIDUAL FOR EACH ITERATION (1 INDICATES THE FIRST INNER ITERATION):

    RESIDUAL       RESIDUAL       RESIDUAL       RESIDUAL       RESIDUAL    
   LAYER,ROW,COL  LAYER,ROW,COL  LAYER,ROW,COL  LAYER,ROW,COL  LAYER,ROW,COL
 ---------------------------------------------------------------------------
  1  0.7164E-03  0  0.2105E-03  0 -0.5327E-04  0  0.1862E-04  0  0.6292E-05
   (  2, 17, 11)  (  1, 17, 12)  (  1, 16, 12)  (  1, 18, 11)  (  1, 18, 11)
  0 -0.2418E-05  1 -0.2772E-05  0  0.7771E-06  0 -0.3615E-06  0  0.8790E-07
   (  1, 18, 12)  (  2, 19, 11)  (  2, 18,  9)  (  2, 17, 11)  (  2, 13, 13)
  1 -0.2818E-06  0  0.1084E-06  1 -0.2524E-06  0 -0.1276E-06  1  0.2167E-06
   (  2, 18, 11)  (  2, 50, 34)  (  2, 51, 35)  (  2, 51, 35)  (  2, 51, 35)
  0  0.1115E-06  1 -0.1840E-06  0 -0.9750E-07  1  0.1516E-06  0  0.7996E-07
   (  2, 51, 35)  (  2, 51, 35)  (  2, 51, 35)  (  2, 51, 35)  (  2, 51, 35)
  1 -0.1264E-06  0 -0.6724E-07  1  0.1037E-06  0  0.5509E-07  1 -0.8613E-07
   (  2, 51, 35)  (  2, 51, 35)  (  2, 51, 35)  (  2, 51, 35)  (  2, 51, 35)
  0 -0.4589E-07  1  0.7082E-07  0  0.3772E-07  1 -0.5873E-07  0 -0.3131E-07
   (  2, 51, 35)  (  2, 51, 35)  (  2, 51, 35)  (  2, 51, 35)  (  2, 51, 35)
  1  0.4840E-07  0  0.2581E-07  1 -0.4013E-07  0 -0.2139E-07  1  0.3313E-07
   (  2, 51, 35)  (  2, 51, 35)  (  2, 51, 35)  (  2, 51, 35)  (  2, 51, 35)
  0  0.1766E-07  1  0.2757E-07  0 -0.1464E-07  1  0.2301E-07  0  0.1211E-07
   (  2, 51, 35)  (  2,  5, 11)  (  2, 51, 35)  (  2,  5, 11)  (  2, 51, 35)
  1  0.1917E-07  0 -0.1004E-07  1  0.1596E-07
   (  2,  5, 11)  (  2, 51, 35)  (  2,  5, 11)



 OUTPUT CONTROL FOR STRESS PERIOD    2   TIME STEP  120
    SAVE HEAD FOR ALL LAYERS
    SAVE DRAWDOWN FOR ALL LAYERS
    SAVE BUDGET
    PRINT BUDGET
 UBDSV1 SAVING "         STORAGE" ON UNIT   9 AT TIME STEP120, STRESS PERIOD   2
 UBDSV2 SAVING "   CONSTANT HEAD" ON UNIT   9 AT TIME STEP120, STRESS PERIOD   2
 UBDSV1 SAVING "FLOW RIGHT FACE " ON UNIT   9 AT TIME STEP120, STRESS PERIOD   2
 UBDSV1 SAVING "FLOW FRONT FACE " ON UNIT   9 AT TIME STEP120, STRESS PERIOD   2
 UBDSV1 SAVING "FLOW LOWER FACE " ON UNIT   9 AT TIME STEP120, STRESS PERIOD   2
 UBDSV4 SAVING "           WELLS" ON UNIT   9 AT TIME STEP120, STRESS PERIOD   2
 UBDSV4 SAVING "   RIVER LEAKAGE" ON UNIT   9 AT TIME STEP120, STRESS PERIOD   2
 UBDSV3 SAVING "              ET" ON UNIT   9 AT TIME STEP120, STRESS PERIOD   2
 UBDSV4 SAVING " HEAD DEP BOUNDS" ON UNIT   9 AT TIME STEP120, STRESS PERIOD   2
 UBDSV3 SAVING "        RECHARGE" ON UNIT   9 AT TIME STEP120, STRESS PERIOD   2
 SOLVING FOR ZETA FOR LAYER     1 ZONE     2
     2 CALLS TO PCG ROUTINE FOR TIME STEP 120 IN STRESS PERIOD    2
     4 TOTAL ITERATIONS

 MAXIMUM HEAD CHANGE FOR EACH ITERATION (1 INDICATES THE FIRST INNER ITERATION):

    HEAD CHANGE    HEAD CHANGE    HEAD CHANGE    HEAD CHANGE    HEAD CHANGE 
   LAYER,ROW,COL  LAYER,ROW,COL  LAYER,ROW,COL  LAYER,ROW,COL  LAYER,ROW,COL
 ---------------------------------------------------------------------------
  1   35.00      0  0.1367      0  0.8335E-03  1  0.5862E-05
   (  1, 20,  9)  (  1, 19, 10)  (  1, 19,  8)  (  1, 25,  4)

 MAXIMUM RESIDUAL FOR EACH ITERATION (1 INDICATES THE FIRST INNER ITERATION):

    RESIDUAL       RESIDUAL       RESIDUAL       RESIDUAL       RESIDUAL    
   LAYER,ROW,COL  LAYER,ROW,COL  LAYER,ROW,COL  LAYER,ROW,COL  LAYER,ROW,COL
 ---------------------------------------------------------------------------
  1 -0.4515E-04  0 -0.2741E-06  0 -0.2182E-08  1 -0.3858E-10
   (  1, 19, 10)  (  1, 19,  8)  (  1, 25,  4)  (  1, 24,  5)


 SOLVING FOR ZETA FOR LAYER     2 ZONE     2
     2 CALLS TO PCG ROUTINE FOR TIME STEP 120 IN STRESS PERIOD    2
     4 TOTAL ITERATIONS

 MAXIMUM HEAD CHANGE FOR EACH ITERATION (1 INDICATES THE FIRST INNER ITERATION):

    HEAD CHANGE    HEAD CHANGE    HEAD CHANGE    HEAD CHANGE    HEAD CHANGE 
   LAYER,ROW,COL  LAYER,ROW,COL  LAYER,ROW,COL  LAYER,ROW,COL  LAYER,ROW,COL
 ---------------------------------------------------------------------------
  1  -5.868      0  0.5376E-01  0  0.6404E-03  1  0.4028E-05
   (  1, 17, 12)  (  1, 12, 11)  (  1, 11, 12)  (  1, 33,  3)

 MAXIMUM RESIDUAL FOR EACH ITERATION (1 INDICATES THE FIRST INNER ITERATION):

    RESIDUAL       RESIDUAL       RESIDUAL       RESIDUAL       RESIDUAL    
   LAYER,ROW,COL  LAYER,ROW,COL  LAYER,ROW,COL  LAYER,ROW,COL  LAYER,ROW,COL
 ---------------------------------------------------------------------------
  1 -0.1676E-04  0 -0.1993E-06  0 -0.1404E-08  1 -0.1692E-10
   (  1, 12, 11)  (  1, 11, 12)  (  1, 33,  3)  (  1, 29,  6)


 UBUDSV SAVING "      ZETASRF  1" ON UNIT170 AT TIME STEP120, STRESS PERIOD    2


                      VOLUMETRIC SWI ZONE BUDGET FOR ENTIRE MODEL
                     AT END OF TIME STEP  120 IN STRESS PERIOD   2
                                      ZONE     1
  -----------------------------------------------------------------------------------

        CUMULATIVE VOLUMES      L**3       RATES FOR THIS TIME STEP      L**3/T
        ------------------                 ------------------------

              IN:                                      IN:
              ---                                      ---
             BOUNDARIES =   889399104.0000            BOUNDARIES =           0.1775
          CONSTANT HEAD =           0.0000         CONSTANT HEAD =           0.0000
            ZONE CHANGE =   227964336.0000           ZONE CHANGE =       4.0133E-02
       ZONE CHG TIP/TOE =    16068137.0000      ZONE CHG TIP/TOE =       8.5006E-03
            ZONE MIXING =           0.0000           ZONE MIXING =           0.0000

               TOTAL IN =  1133431552.0000              TOTAL IN =           0.2261

             OUT:                                     OUT:
             ----                                     ----
             BOUNDARIES =  1034271488.0000            BOUNDARIES =           0.2694
          CONSTANT HEAD =           0.0000         CONSTANT HEAD =           0.0000
            ZONE CHANGE =    38690696.0000           ZONE CHANGE =       1.1181E-02
       ZONE CHG TIP/TOE =    12443349.0000      ZONE CHG TIP/TOE =       7.1653E-03
            ZONE MIXING =     3256238.7500           ZONE MIXING =       2.9059E-03

              TOTAL OUT =  1088661760.0000             TOTAL OUT =           0.2907

               IN - OUT =    44769792.0000              IN - OUT =      -6.4602E-02

    PERCENT DISCREPANCY =           4.03     PERCENT DISCREPANCY =         -25.00



                      VOLUMETRIC SWI ZONE BUDGET FOR ENTIRE MODEL
                     AT END OF TIME STEP  120 IN STRESS PERIOD   2
                                      ZONE     2
  -----------------------------------------------------------------------------------

        CUMULATIVE VOLUMES      L**3       RATES FOR THIS TIME STEP      L**3/T
        ------------------                 ------------------------

              IN:                                      IN:
              ---                                      ---
             BOUNDARIES =   203011952.0000            BOUNDARIES =           0.1444
          CONSTANT HEAD =           0.0000         CONSTANT HEAD =           0.0000
            ZONE CHANGE =    32426192.0000           ZONE CHANGE =       8.4390E-03
       ZONE CHG TIP/TOE =    42431576.0000      ZONE CHG TIP/TOE =       7.2620E-02
            ZONE MIXING =     3256238.7500           ZONE MIXING =       2.9059E-03

               TOTAL IN =   281125952.0000              TOTAL IN =           0.2284

             OUT:                                     OUT:
             ----                                     ----
             BOUNDARIES =   170892224.0000            BOUNDARIES =       8.0956E-02
          CONSTANT HEAD =           0.0000         CONSTANT HEAD =           0.0000
            ZONE CHANGE =    88343416.0000           ZONE CHANGE =       8.1815E-02
       ZONE CHG TIP/TOE =    10218218.0000      ZONE CHG TIP/TOE =       5.7328E-03
            ZONE MIXING =           0.0000           ZONE MIXING =           0.0000

              TOTAL OUT =   269453856.0000             TOTAL OUT =           0.1685

               IN - OUT =    11672096.0000              IN - OUT =       5.9856E-02

    PERCENT DISCREPANCY =           4.24     PERCENT DISCREPANCY =          30.16


 HEAD WILL BE SAVED ON UNIT   37 AT END OF TIME STEP  120, STRESS PERIOD    2

 DRAWDOWN WILL BE SAVED ON UNIT   38 AT END OF TIME STEP  120, STRESS PERIOD    2
1
  VOLUMETRIC BUDGET FOR ENTIRE MODEL AT END OF TIME STEP  120, STRESS PERIOD   2
  ------------------------------------------------------------------------------

     CUMULATIVE VOLUMES      L**3       RATES FOR THIS TIME STEP      L**3/T
     ------------------                 ------------------------

           IN:                                      IN:
           ---                                      ---
             STORAGE =   107535608.0000               STORAGE =       2.8756E-02
       CONSTANT HEAD =           0.0000         CONSTANT HEAD =           0.0000
               WELLS =           0.0000                 WELLS =           0.0000
       RIVER LEAKAGE =   183273616.0000         RIVER LEAKAGE =       3.4000E-02
                  ET =           0.0000                    ET =           0.0000
     HEAD DEP BOUNDS =   216404064.0000       HEAD DEP BOUNDS =           0.1509
            RECHARGE =   756124800.0000              RECHARGE =           0.1566
          SWIADDTOCH =           0.0000            SWIADDTOCH =           0.0000

            TOTAL IN =  1263338112.0000              TOTAL IN =           0.3702

          OUT:                                     OUT:
          ----                                     ----
             STORAGE =      251490.7500               STORAGE =       2.1112E-04
       CONSTANT HEAD =           0.0000         CONSTANT HEAD =           0.0000
               WELLS =   718327424.0000                 WELLS =           0.3700
       RIVER LEAKAGE =    21630804.0000         RIVER LEAKAGE =           0.0000
                  ET =   166413648.0000                    ET =           0.0000
     HEAD DEP BOUNDS =   356727456.0000       HEAD DEP BOUNDS =           0.0000
            RECHARGE =           0.0000              RECHARGE =           0.0000
          SWIADDTOCH =           0.0000            SWIADDTOCH =           0.0000

           TOTAL OUT =  1263350784.0000             TOTAL OUT =           0.3702

            IN - OUT =      -12672.0000              IN - OUT =           0.0000

 PERCENT DISCREPANCY =          -0.00     PERCENT DISCREPANCY =           0.00






         TIME SUMMARY AT END OF TIME STEP  120 IN STRESS PERIOD    2
                    SECONDS     MINUTES      HOURS       DAYS        YEARS
                    -----------------------------------------------------------
   TIME STEP LENGTH 1.57680E+07 2.62800E+05  4380.0      182.50     0.49966    
 STRESS PERIOD TIME 1.89216E+09 3.15361E+07 5.25601E+05  21900.      59.959    
         TOTAL TIME 5.04577E+09 8.40961E+07 1.40160E+06  58400.      159.89    
1

 Run end date and time (yyyy/mm/dd hh:mm:ss): 2016/07/05  9:12:21
 Elapsed run time: 20.833 Seconds

